*HEADING
cubit(sktop/Documentos/1. PROJECTS/FEA/Fitting/Fitting_mesh.inp): 11/30/2021: 13
version: 2021.11
**
********************************** P A R T S **********************************
*PART, NAME=Part-Default
**
********************************** N O D E S **********************************
*NODE, NSET=ALLNODES
    5497,   -6.776559e+00,    2.000000e+01,    6.000000e+01
    5498,   -6.475496e+00,    2.000000e+01,    5.800257e+01
    5499,   -5.599056e+00,    2.000000e+01,    5.618263e+01
    5500,   -4.225116e+00,    2.000000e+01,    5.470187e+01
    5501,   -2.475755e+00,    2.000000e+01,    5.369188e+01
    5502,   -5.064129e-01,    2.000000e+01,    5.324239e+01
    5503,    1.507926e+00,    2.000000e+01,    5.339334e+01
    5504,    3.388280e+00,    2.000000e+01,    5.413133e+01
    5505,    4.967569e+00,    2.000000e+01,    5.539077e+01
    5506,    6.105469e+00,    2.000000e+01,    5.705976e+01
    5507,    6.700871e+00,    2.000000e+01,    5.899001e+01
    5508,    6.700871e+00,    2.000000e+01,    6.100999e+01
    5509,    6.105469e+00,    2.000000e+01,    6.294024e+01
    5510,    4.967569e+00,    2.000000e+01,    6.460923e+01
    5511,    3.388280e+00,    2.000000e+01,    6.586867e+01
    5512,    1.507926e+00,    2.000000e+01,    6.660666e+01
    5513,   -5.064129e-01,    2.000000e+01,    6.675761e+01
    5514,   -2.475755e+00,    2.000000e+01,    6.630812e+01
    5515,   -4.225116e+00,    2.000000e+01,    6.529813e+01
    5516,   -5.599056e+00,    2.000000e+01,    6.381737e+01
** ... 5460 like lines cut
**
********************************** E L E M E N T S ****************************
*ELEMENT, TYPE=C3D4, ELSET=EB1
       1,    8211,    8212,    8213,    8214
       2,    8214,    8216,    8215,    8217
       3,    8211,    8214,    8217,    8218
       4,    8214,    8217,    8218,    8219
       5,    8214,    8216,    8219,    8220
       6,    8221,    8222,    8223,    8224
       7,    8223,    8225,    8224,    8226
       8,    8061,    5987,    8062,    8227
       9,    8224,    8229,    8228,    8230
      10,    8224,    8230,    8226,    8231
      11,    8224,    8229,    8230,    8232
      12,    8222,    8224,    8233,    8234
      13,    8224,    8235,    8234,    8236
      14,    8237,    8238,    8239,    8240
      15,    8238,    8239,    8240,    8241
      16,    8240,    8241,    8242,    8243
      17,    8240,    8245,    8244,    8246
      18,    8238,    8240,    8247,    8248
      19,    8240,    8245,    8246,    8249
      20,    6221,    8250,    7516,    8251
** ... 24094 like lines cut
**
********************************** P R O P E R T I E S ************************
*SOLID SECTION, ELSET=EB1, MATERIAL=Default-Steel
**
*END PART
**
**
**
********************************** E N D   P A R T S **********************************
**
**
********************************** A S S E M B L Y ************************************
**
*ASSEMBLY, NAME=ASSEMBLY1
**
*INSTANCE, NAME=Part-Default_1, PART=Part-Default
*END INSTANCE
**
*END ASSEMBLY
**
**
**
*MATERIAL, NAME = Default-Steel
*ELASTIC, TYPE=ISOTROPIC
2.068000e+05, 2.900000e-01
*DENSITY
7.000000e-06
*CONDUCTIVITY,TYPE=ISO
4.500000e-02
*SPECIFIC HEAT
5.000000e+02
**
**
************************************** H I S T O R Y *************************************
**
*PREPRINT
**
**************************************** S T E P 1 ***************************************
*STEP,INC=100,NAME=Default Set
**
*STATIC
1, 1, 1e-05, 1
**
**
**
**
*END STEP
