**
** Heading +++++++++++++++++++++++++++++++++++++++++++++++++
**
*Heading
Hash: XFFOj1JK, Date: 12/01/2021, Unit system: MM_TON_S_C
**
** Nodes +++++++++++++++++++++++++++++++++++++++++++++++++++
**
*Node
1, -6.77655900E+000, 2.00000000E+001, 6.00000000E+001
2, -6.47549600E+000, 2.00000000E+001, 5.80025700E+001
3, -5.59905600E+000, 2.00000000E+001, 5.61826300E+001
4, -4.22511600E+000, 2.00000000E+001, 5.47018700E+001
5, -2.47575500E+000, 2.00000000E+001, 5.36918800E+001
6, -5.06412900E-001, 2.00000000E+001, 5.32423900E+001
7, 1.50792600E+000, 2.00000000E+001, 5.33933400E+001
8, 3.38828000E+000, 2.00000000E+001, 5.41313300E+001
9, 4.96756900E+000, 2.00000000E+001, 5.53907700E+001
10, 6.10546900E+000, 2.00000000E+001, 5.70597600E+001
11, 6.70087100E+000, 2.00000000E+001, 5.89900100E+001
12, 6.70087100E+000, 2.00000000E+001, 6.10099900E+001
13, 6.10546900E+000, 2.00000000E+001, 6.29402400E+001
14, 4.96756900E+000, 2.00000000E+001, 6.46092300E+001
15, 3.38828000E+000, 2.00000000E+001, 6.58686700E+001
16, 1.50792600E+000, 2.00000000E+001, 6.66066600E+001
17, -5.06412900E-001, 2.00000000E+001, 6.67576100E+001
18, -2.47575500E+000, 2.00000000E+001, 6.63081200E+001
19, -4.22511600E+000, 2.00000000E+001, 6.52981300E+001
20, -5.59905600E+000, 2.00000000E+001, 6.38173700E+001
** ... 5466 like lines cut
**
** Elements ++++++++++++++++++++++++++++++++++++++++++++++++
**
*Element, Type=C3D4, Elset=Fitting
1, 2715, 2716, 2717, 2718
2, 2718, 2720, 2719, 2721
3, 2715, 2718, 2721, 2722
4, 2718, 2721, 2722, 2723
5, 2718, 2720, 2723, 2724
6, 2725, 2726, 2727, 2728
7, 2727, 2729, 2728, 2730
8, 2565, 491, 2566, 2731
9, 2728, 2733, 2732, 2734
10, 2728, 2734, 2730, 2735
11, 2728, 2733, 2734, 2736
12, 2726, 2728, 2737, 2738
13, 2728, 2739, 2738, 2740
14, 2741, 2742, 2743, 2744
15, 2742, 2743, 2744, 2745
16, 2744, 2745, 2746, 2747
17, 2744, 2749, 2748, 2750
18, 2742, 2744, 2751, 2752
19, 2744, 2749, 2750, 2753
20, 725, 2754, 2020, 2755
** ... 24094 like lines cut
**
** Node sets +++++++++++++++++++++++++++++++++++++++++++++++
**
*Nset, Nset=Internal-1_Base
70, 71, 74, 75, 80, 81, 84, 85, 448, 452, 453, 454, 455, 456, 457, 458, 
459, 460, 461, 474, 478, 479, 480, 481, 482, 483, 484, 485, 486, 487, 615, 616, 
617, 618, 619, 620, 621, 622, 623, 624, 637, 638, 639, 640, 641, 642, 643, 644, 
645, 646, 648, 649, 650, 651, 652, 653, 654, 655, 656, 657, 658, 659, 660, 661, 
662, 663, 664, 665, 666, 667, 668, 669, 670, 671, 672, 673, 2586, 2587, 2588, 2589, 
2590, 2591, 2592, 2593, 2594, 2595, 2596, 2597, 2598, 2599, 2600, 2601, 2602, 2603, 2604, 2605, 
2606, 2607, 2608, 2609, 2610, 2611, 2612, 2613, 2614, 2615, 2616, 2617, 2618, 2619, 2620, 2621, 
2622, 2623, 2624, 2625, 2626, 2627, 2628, 2629, 2630, 2631, 2632, 2633, 2634, 2635, 2636, 2637, 
2638, 2639, 2640, 2641, 2642, 2643, 2644, 2645, 2646, 2647, 2648, 2649, 2650, 2651, 2652, 2653, 
2654, 2655, 2656, 2657, 2658, 2659, 2660, 2661, 2662, 2663, 2664, 2665, 2666, 2667, 2668, 2669, 
2670, 2671, 2672, 2673, 2674, 2675, 2676, 2677, 2678, 2679, 2680, 2681, 2682, 2683, 2684, 2685, 
2686, 2687, 2688, 2689, 2690, 2691, 2692, 2693, 2694, 2695, 2696, 2697, 2698, 2699, 2700, 2701, 
2702, 2703, 2704, 2705, 2706, 2707, 2708, 2709, 2710, 2711, 2712, 2713, 2714
*Nset, Nset=base
70, 71, 74, 75, 80, 81, 84, 85, 448, 452, 453, 454, 455, 456, 457, 458, 
459, 460, 461, 474, 478, 479, 480, 481, 482, 483, 484, 485, 486, 487, 615, 616, 
617, 618, 619, 620, 621, 622, 623, 624, 637, 638, 639, 640, 641, 642, 643, 644, 
645, 646, 648, 649, 650, 651, 652, 653, 654, 655, 656, 657, 658, 659, 660, 661, 
662, 663, 664, 665, 666, 667, 668, 669, 670, 671, 672, 673, 2586, 2587, 2588, 2589, 
2590, 2591, 2592, 2593, 2594, 2595, 2596, 2597, 2598, 2599, 2600, 2601, 2602, 2603, 2604, 2605, 
2606, 2607, 2608, 2609, 2610, 2611, 2612, 2613, 2614, 2615, 2616, 2617, 2618, 2619, 2620, 2621, 
2622, 2623, 2624, 2625, 2626, 2627, 2628, 2629, 2630, 2631, 2632, 2633, 2634, 2635, 2636, 2637, 
2638, 2639, 2640, 2641, 2642, 2643, 2644, 2645, 2646, 2647, 2648, 2649, 2650, 2651, 2652, 2653, 
2654, 2655, 2656, 2657, 2658, 2659, 2660, 2661, 2662, 2663, 2664, 2665, 2666, 2667, 2668, 2669, 
2670, 2671, 2672, 2673, 2674, 2675, 2676, 2677, 2678, 2679, 2680, 2681, 2682, 2683, 2684, 2685, 
2686, 2687, 2688, 2689, 2690, 2691, 2692, 2693, 2694, 2695, 2696, 2697, 2698, 2699, 2700, 2701, 
2702, 2703, 2704, 2705, 2706, 2707, 2708, 2709, 2710, 2711, 2712, 2713, 2714
*Nset, Nset=axis
1, 2, 3, 4, 5, 6, 7, 8, 9, 10, 11, 12, 13, 14, 15, 16, 
17, 18, 19, 20, 21, 92, 93, 96, 97, 98, 99, 708, 709, 710, 711, 712, 
713, 714, 715, 716, 717, 718, 729, 730, 731, 732, 733, 734, 735, 736, 737, 738, 
739, 1524, 1525, 1526, 1527, 1528, 1529, 1530, 1531, 1532, 1533, 1534, 1535, 1536, 1537, 1538, 
1539, 1540, 1541, 1542, 1543, 1544, 1545, 1546, 2010, 2011, 2012, 2013, 2014, 2015, 2016, 2017, 
2018, 2019, 2020, 2021, 2022, 2023, 2024, 2025, 2026, 2027, 2028, 2029, 2030, 2031, 2032, 2033, 
2034, 2035, 2036, 2037, 2038, 2039, 2040, 2041, 2042, 2043, 2044, 2045, 2046, 2047, 2048, 2049, 
2050, 2051, 2052, 2053, 2054, 2055, 2056, 2057, 2058, 2059, 2060, 2061, 2062, 2063, 2064, 2065, 
2066, 2067, 2068, 2069, 2070, 2071, 2072, 2073, 2074, 2075, 2076
*Nset, Nset=bolt1
76, 77, 475, 476, 477, 488, 489, 490, 491, 492, 493, 494, 495, 496, 497, 498, 
499, 1143, 1144, 1145, 1146, 1147, 1148, 1149, 1150, 1151, 1152, 1153, 1154, 1155, 1156, 1157, 
1158, 1159, 1160, 1161, 1162, 1163
*Nset, Nset=bolt2
72, 73, 449, 450, 451, 462, 463, 464, 465, 466, 467, 468, 469, 470, 471, 472, 
473, 1122, 1123, 1124, 1125, 1126, 1127, 1128, 1129, 1130, 1131, 1132, 1133, 1134, 1135, 1136, 
1137, 1138, 1139, 1140, 1141, 1142
*Nset, Nset=RP1_ref_5481
5481
*Nset, Nset=RP1_rot_5482
5482
*Nset, Nset=RP_bolt2_ref_5483
5483
*Nset, Nset=RP_bolt2_rot_5484
5484
*Nset, Nset=RP_bolt1_ref_5485
5485
*Nset, Nset=RP_bolt1_rot_5486
5486
**
** Element sets ++++++++++++++++++++++++++++++++++++++++++++
**
*Elset, Elset=EB1
1, 2, 3, 4, 5, 6, 7, 8, 9, 10, 11, 12, 13, 14, 15, 16, 
17, 18, 19, 20, 21, 22, 23, 24, 25, 26, 27, 28, 29, 30, 31, 32, 
33, 34, 35, 36, 37, 38, 39, 40, 41, 42, 43, 44, 45, 46, 47, 48, 
49, 50, 51, 52, 53, 54, 55, 56, 57, 58, 59, 60, 61, 62, 63, 64, 
65, 66, 67, 68, 69, 70, 71, 72, 73, 74, 75, 76, 77, 78, 79, 80, 
81, 82, 83, 84, 85, 86, 87, 88, 89, 90, 91, 92, 93, 94, 95, 96, 
97, 98, 99, 100, 101, 102, 103, 104, 105, 106, 107, 108, 109, 110, 111, 112, 
113, 114, 115, 116, 117, 118, 119, 120, 121, 122, 123, 124, 125, 126, 127, 128, 
129, 130, 131, 132, 133, 134, 135, 136, 137, 138, 139, 140, 141, 142, 143, 144, 
145, 146, 147, 148, 149, 150, 151, 152, 153, 154, 155, 156, 157, 158, 159, 160, 
161, 162, 163, 164, 165, 166, 167, 168, 169, 170, 171, 172, 173, 174, 175, 176, 
177, 178, 179, 180, 181, 182, 183, 184, 185, 186, 187, 188, 189, 190, 191, 192, 
193, 194, 195, 196, 197, 198, 199, 200, 201, 202, 203, 204, 205, 206, 207, 208, 
209, 210, 211, 212, 213, 214, 215, 216, 217, 218, 219, 220, 221, 222, 223, 224, 
225, 226, 227, 228, 229, 230, 231, 232, 233, 234, 235, 236, 237, 238, 239, 240, 
241, 242, 243, 244, 245, 246, 247, 248, 249, 250, 251, 252, 253, 254, 255, 256, 
257, 258, 259, 260, 261, 262, 263, 264, 265, 266, 267, 268, 269, 270, 271, 272, 
273, 274, 275, 276, 277, 278, 279, 280, 281, 282, 283, 284, 285, 286, 287, 288, 
289, 290, 291, 292, 293, 294, 295, 296, 297, 298, 299, 300, 301, 302, 303, 304, 
305, 306, 307, 308, 309, 310, 311, 312, 313, 314, 315, 316, 317, 318, 319, 320, 
** ... 1488 like lines cut
*Elset, Elset=Internal-1_Base_S1
305, 803, 1268, 1635, 2634, 2668, 3025, 3555, 3655, 3674, 3732, 3750, 3753, 4289, 4312, 4335, 
4375, 4388, 4455, 4460, 4463, 4486, 4503, 4514, 4517, 4585, 4587, 4596, 4597, 4598, 4614, 4616, 
4635, 4653, 4710, 4720, 4724, 4745, 4748, 5204, 5501, 5562, 5597, 5967, 5976, 6258, 6272, 6274, 
6460, 6477, 6495, 6569, 6570, 6945, 7175, 7262, 7267, 7286, 7306, 7355, 7360, 7406, 7414, 7415, 
7421, 7433, 7439, 7470, 7506, 7517, 7518, 8312, 8324, 8483, 9120, 9121, 9129, 9269, 9299, 9303, 
9310, 9340, 9346, 9356, 9363, 9370, 9380, 10039, 10065, 10539, 10636, 10726, 10903, 10913, 10918, 10930, 
10944, 10945, 10954, 10971, 10979, 10981, 11061, 11073, 11119, 11129, 11137, 11150, 11154, 11166, 11173, 11174, 
11183, 11199, 11205, 11384, 11429, 11462, 11971, 11972, 12084, 12087, 12089, 12297, 12344, 12519, 12568, 12612, 
12614, 12698, 12701, 12745, 12754, 12847, 12848, 13530, 13831, 13832, 13835, 13877, 13881, 13938, 13945, 13971, 
13991, 14236, 14502, 14824, 14844, 14854, 14897, 14907, 14941, 14949, 14962, 14964, 14968, 14981, 15189, 15442, 
15548, 15888, 15898, 15912, 15921, 15951, 15968, 16649, 16650, 16659, 16681, 16683, 16709, 16732, 16769, 16771, 
17371, 17380, 17420, 17430, 17472, 17473, 17482, 17483, 17845, 17991, 18016, 18052, 18073, 18249, 18459, 18513, 
18520, 18536, 18538, 18544, 18545, 18552, 18556, 18559, 18560, 18776, 18798, 18868, 18941, 18980, 19020, 19028, 
19033, 19226, 19407, 19415, 19425, 19433, 19452, 19455, 19461, 19470, 19474, 19475, 19774, 19776, 19779, 19788, 
19792, 20200, 20208, 20426, 20427, 20552, 20908, 20909, 20920, 20944, 20945, 21054, 21082, 21164, 21165, 21498, 
21596, 21688, 21738, 21747, 21749, 21754, 21904, 22368, 22390, 22546, 22827, 22830, 22959, 23044, 23250, 23345, 
23346, 23730, 23735, 23742, 23927, 23991
*Elset, Elset=Internal-1_Base_S3
317, 4134, 5412, 6764, 7297, 9224, 9286, 9296, 9334, 9352, 11078, 11207, 11900, 12647, 12699, 14937, 
16754, 17475, 19014, 19017, 19424, 19430, 19443, 19446, 23951
*Elset, Elset=Internal-1_Base_S2
659, 1155, 4148, 4405, 4413, 4420, 4472, 4546, 5625, 6490, 7068, 7366, 7389, 7394, 7408, 7457, 
9349, 10993, 11118, 11151, 12682, 13868, 15934, 16707, 17409, 18522, 18970, 19030, 19390, 19409, 19994, 19996, 
19997, 20184, 20189, 24106
*Elset, Elset=Internal-1_Base_S4
1606, 4483, 4561, 4609, 7368, 7425, 11120, 12661, 12719, 13953, 14970, 17440, 19782
**
** Surfaces ++++++++++++++++++++++++++++++++++++++++++++++++
**
*Surface, Name=Base, Type=Element
Internal-1_Base_S1, S1
Internal-1_Base_S3, S3
Internal-1_Base_S2, S2
Internal-1_Base_S4, S4
**
** Physical constants ++++++++++++++++++++++++++++++++++++++
**
**
** Materials +++++++++++++++++++++++++++++++++++++++++++++++
**
*Material, Name=Default-Steel
*Elastic
206800, 0.29
*Density
7E-06
*Conductivity
0.045
*Specific heat
500
**
** Sections ++++++++++++++++++++++++++++++++++++++++++++++++
**
*Solid section, Elset=EB1, Material=Default-Steel
**
** Pre-tension sections ++++++++++++++++++++++++++++++++++++
**
**
** Constraints +++++++++++++++++++++++++++++++++++++++++++++
**
*Rigid body, Nset=axis, Ref node=5481, Rot node=5482
*Rigid body, Nset=bolt1, Ref node=5485, Rot node=5486
*Rigid body, Nset=bolt2, Ref node=5483, Rot node=5484
**
** Surface interactions ++++++++++++++++++++++++++++++++++++
**
**
** Contact pairs +++++++++++++++++++++++++++++++++++++++++++
**
**
** Initial conditions ++++++++++++++++++++++++++++++++++++++
**
*PART, NAME=Part-Default
*END PART
*ASSEMBLY, NAME=ASSEMBLY1
*INSTANCE, NAME=Part-Default_1, PART=Part-Default
*END INSTANCE
*END ASSEMBLY
*PREPRINT
*Node
5483,0,0,0
5484,0,0,0
5485,0,0,0
5486,0,0,0
5487,0,0,0
5488,0,0,0
5489,0,0,0
5490,0,0,0
5491,0,0,0
5492,0,0,0
5493,0,0,0
5494,0,0,0
5495,0,0,0
5496,0,0,0
5497,0,0,0
5498,0,0,0
5499,0,0,0
5500,0,0,0
5501,0,0,0
5502,0,0,0
** ... 185 like lines cut
*EQUATION
2
70, 3, 1, 5483, 3, -1
*EQUATION
2
71, 3, 1, 5484, 3, -1
*EQUATION
2
74, 3, 1, 5485, 3, -1
*EQUATION
2
75, 3, 1, 5486, 3, -1
*EQUATION
2
80, 3, 1, 5487, 3, -1
*EQUATION
2
81, 3, 1, 5488, 3, -1
*EQUATION
2
84, 3, 1, 5489, 3, -1
*EQUATION
2
85, 3, 1, 5490, 3, -1
*EQUATION
2
448, 3, 1, 5491, 3, -1
*EQUATION
2
452, 3, 1, 5492, 3, -1
*EQUATION
2
453, 3, 1, 5493, 3, -1
*EQUATION
2
454, 3, 1, 5494, 3, -1
*EQUATION
2
455, 3, 1, 5495, 3, -1
*EQUATION
2
456, 3, 1, 5496, 3, -1
*EQUATION
2
457, 3, 1, 5497, 3, -1
*EQUATION
2
458, 3, 1, 5498, 3, -1
*EQUATION
2
459, 3, 1, 5499, 3, -1
*EQUATION
2
460, 3, 1, 5500, 3, -1
*EQUATION
2
461, 3, 1, 5501, 3, -1
*EQUATION
2
474, 3, 1, 5502, 3, -1
*EQUATION
2
478, 3, 1, 5503, 3, -1
*EQUATION
2
479, 3, 1, 5504, 3, -1
*EQUATION
2
480, 3, 1, 5505, 3, -1
*EQUATION
2
481, 3, 1, 5506, 3, -1
*EQUATION
2
482, 3, 1, 5507, 3, -1
*EQUATION
2
483, 3, 1, 5508, 3, -1
*EQUATION
2
484, 3, 1, 5509, 3, -1
*EQUATION
2
485, 3, 1, 5510, 3, -1
*EQUATION
2
486, 3, 1, 5511, 3, -1
*EQUATION
2
487, 3, 1, 5512, 3, -1
*EQUATION
2
615, 3, 1, 5513, 3, -1
*EQUATION
2
616, 3, 1, 5514, 3, -1
*EQUATION
2
617, 3, 1, 5515, 3, -1
*EQUATION
2
618, 3, 1, 5516, 3, -1
*EQUATION
2
619, 3, 1, 5517, 3, -1
*EQUATION
2
620, 3, 1, 5518, 3, -1
*EQUATION
2
621, 3, 1, 5519, 3, -1
*EQUATION
2
622, 3, 1, 5520, 3, -1
*EQUATION
2
623, 3, 1, 5521, 3, -1
*EQUATION
2
624, 3, 1, 5522, 3, -1
*EQUATION
2
637, 3, 1, 5523, 3, -1
*EQUATION
2
638, 3, 1, 5524, 3, -1
*EQUATION
2
639, 3, 1, 5525, 3, -1
*EQUATION
2
640, 3, 1, 5526, 3, -1
*EQUATION
2
641, 3, 1, 5527, 3, -1
*EQUATION
2
642, 3, 1, 5528, 3, -1
*EQUATION
2
643, 3, 1, 5529, 3, -1
*EQUATION
2
644, 3, 1, 5530, 3, -1
*EQUATION
2
645, 3, 1, 5531, 3, -1
*EQUATION
2
646, 3, 1, 5532, 3, -1
*EQUATION
2
648, 3, 1, 5533, 3, -1
*EQUATION
2
649, 3, 1, 5534, 3, -1
*EQUATION
2
650, 3, 1, 5535, 3, -1
*EQUATION
2
651, 3, 1, 5536, 3, -1
*EQUATION
2
652, 3, 1, 5537, 3, -1
*EQUATION
2
653, 3, 1, 5538, 3, -1
*EQUATION
2
654, 3, 1, 5539, 3, -1
*EQUATION
2
655, 3, 1, 5540, 3, -1
*EQUATION
2
656, 3, 1, 5541, 3, -1
*EQUATION
2
657, 3, 1, 5542, 3, -1
*EQUATION
2
658, 3, 1, 5543, 3, -1
*EQUATION
2
659, 3, 1, 5544, 3, -1
*EQUATION
2
660, 3, 1, 5545, 3, -1
*EQUATION
2
661, 3, 1, 5546, 3, -1
*EQUATION
2
662, 3, 1, 5547, 3, -1
*EQUATION
2
663, 3, 1, 5548, 3, -1
*EQUATION
2
664, 3, 1, 5549, 3, -1
*EQUATION
2
665, 3, 1, 5550, 3, -1
*EQUATION
2
666, 3, 1, 5551, 3, -1
*EQUATION
2
667, 3, 1, 5552, 3, -1
*EQUATION
2
668, 3, 1, 5553, 3, -1
*EQUATION
2
669, 3, 1, 5554, 3, -1
*EQUATION
2
670, 3, 1, 5555, 3, -1
*EQUATION
2
671, 3, 1, 5556, 3, -1
*EQUATION
2
672, 3, 1, 5557, 3, -1
*EQUATION
2
673, 3, 1, 5558, 3, -1
*EQUATION
2
2586, 3, 1, 5559, 3, -1
*EQUATION
2
2587, 3, 1, 5560, 3, -1
*EQUATION
2
2588, 3, 1, 5561, 3, -1
*EQUATION
2
2589, 3, 1, 5562, 3, -1
*EQUATION
2
2590, 3, 1, 5563, 3, -1
*EQUATION
2
2591, 3, 1, 5564, 3, -1
*EQUATION
2
2592, 3, 1, 5565, 3, -1
*EQUATION
2
2593, 3, 1, 5566, 3, -1
*EQUATION
2
2594, 3, 1, 5567, 3, -1
*EQUATION
2
2595, 3, 1, 5568, 3, -1
*EQUATION
2
2596, 3, 1, 5569, 3, -1
*EQUATION
2
2597, 3, 1, 5570, 3, -1
*EQUATION
2
2598, 3, 1, 5571, 3, -1
*EQUATION
2
2599, 3, 1, 5572, 3, -1
*EQUATION
2
2600, 3, 1, 5573, 3, -1
*EQUATION
2
2601, 3, 1, 5574, 3, -1
*EQUATION
2
2602, 3, 1, 5575, 3, -1
*EQUATION
2
2603, 3, 1, 5576, 3, -1
*EQUATION
2
2604, 3, 1, 5577, 3, -1
*EQUATION
2
2605, 3, 1, 5578, 3, -1
*EQUATION
2
2606, 3, 1, 5579, 3, -1
*EQUATION
2
2607, 3, 1, 5580, 3, -1
*EQUATION
2
2608, 3, 1, 5581, 3, -1
*EQUATION
2
2609, 3, 1, 5582, 3, -1
*EQUATION
2
2610, 3, 1, 5583, 3, -1
*EQUATION
2
2611, 3, 1, 5584, 3, -1
*EQUATION
2
2612, 3, 1, 5585, 3, -1
*EQUATION
2
2613, 3, 1, 5586, 3, -1
*EQUATION
2
2614, 3, 1, 5587, 3, -1
*EQUATION
2
2615, 3, 1, 5588, 3, -1
*EQUATION
2
2616, 3, 1, 5589, 3, -1
*EQUATION
2
2617, 3, 1, 5590, 3, -1
*EQUATION
2
2618, 3, 1, 5591, 3, -1
*EQUATION
2
2619, 3, 1, 5592, 3, -1
*EQUATION
2
2620, 3, 1, 5593, 3, -1
*EQUATION
2
2621, 3, 1, 5594, 3, -1
*EQUATION
2
2622, 3, 1, 5595, 3, -1
*EQUATION
2
2623, 3, 1, 5596, 3, -1
*EQUATION
2
2624, 3, 1, 5597, 3, -1
*EQUATION
2
2625, 3, 1, 5598, 3, -1
*EQUATION
2
2626, 3, 1, 5599, 3, -1
*EQUATION
2
2627, 3, 1, 5600, 3, -1
*EQUATION
2
2628, 3, 1, 5601, 3, -1
*EQUATION
2
2629, 3, 1, 5602, 3, -1
*EQUATION
2
2630, 3, 1, 5603, 3, -1
*EQUATION
2
2631, 3, 1, 5604, 3, -1
*EQUATION
2
2632, 3, 1, 5605, 3, -1
*EQUATION
2
2633, 3, 1, 5606, 3, -1
*EQUATION
2
2634, 3, 1, 5607, 3, -1
*EQUATION
2
2635, 3, 1, 5608, 3, -1
*EQUATION
2
2636, 3, 1, 5609, 3, -1
*EQUATION
2
2637, 3, 1, 5610, 3, -1
*EQUATION
2
2638, 3, 1, 5611, 3, -1
*EQUATION
2
2639, 3, 1, 5612, 3, -1
*EQUATION
2
2640, 3, 1, 5613, 3, -1
*EQUATION
2
2641, 3, 1, 5614, 3, -1
*EQUATION
2
2642, 3, 1, 5615, 3, -1
*EQUATION
2
2643, 3, 1, 5616, 3, -1
*EQUATION
2
2644, 3, 1, 5617, 3, -1
*EQUATION
2
2645, 3, 1, 5618, 3, -1
*EQUATION
2
2646, 3, 1, 5619, 3, -1
*EQUATION
2
2647, 3, 1, 5620, 3, -1
*EQUATION
2
2648, 3, 1, 5621, 3, -1
*EQUATION
2
2649, 3, 1, 5622, 3, -1
*EQUATION
2
2650, 3, 1, 5623, 3, -1
*EQUATION
2
2651, 3, 1, 5624, 3, -1
*EQUATION
2
2652, 3, 1, 5625, 3, -1
*EQUATION
2
2653, 3, 1, 5626, 3, -1
*EQUATION
2
2654, 3, 1, 5627, 3, -1
*EQUATION
2
2655, 3, 1, 5628, 3, -1
*EQUATION
2
2656, 3, 1, 5629, 3, -1
*EQUATION
2
2657, 3, 1, 5630, 3, -1
*EQUATION
2
2658, 3, 1, 5631, 3, -1
*EQUATION
2
2659, 3, 1, 5632, 3, -1
*EQUATION
2
2660, 3, 1, 5633, 3, -1
*EQUATION
2
2661, 3, 1, 5634, 3, -1
*EQUATION
2
2662, 3, 1, 5635, 3, -1
*EQUATION
2
2663, 3, 1, 5636, 3, -1
*EQUATION
2
2664, 3, 1, 5637, 3, -1
*EQUATION
2
2665, 3, 1, 5638, 3, -1
*EQUATION
2
2666, 3, 1, 5639, 3, -1
*EQUATION
2
2667, 3, 1, 5640, 3, -1
*EQUATION
2
2668, 3, 1, 5641, 3, -1
*EQUATION
2
2669, 3, 1, 5642, 3, -1
*EQUATION
2
2670, 3, 1, 5643, 3, -1
*EQUATION
2
2671, 3, 1, 5644, 3, -1
*EQUATION
2
2672, 3, 1, 5645, 3, -1
*EQUATION
2
2673, 3, 1, 5646, 3, -1
*EQUATION
2
2674, 3, 1, 5647, 3, -1
*EQUATION
2
2675, 3, 1, 5648, 3, -1
*EQUATION
2
2676, 3, 1, 5649, 3, -1
*EQUATION
2
2677, 3, 1, 5650, 3, -1
*EQUATION
2
2678, 3, 1, 5651, 3, -1
*EQUATION
2
2679, 3, 1, 5652, 3, -1
*EQUATION
2
2680, 3, 1, 5653, 3, -1
*EQUATION
2
2681, 3, 1, 5654, 3, -1
*EQUATION
2
2682, 3, 1, 5655, 3, -1
*EQUATION
2
2683, 3, 1, 5656, 3, -1
*EQUATION
2
2684, 3, 1, 5657, 3, -1
*EQUATION
2
2685, 3, 1, 5658, 3, -1
*EQUATION
2
2686, 3, 1, 5659, 3, -1
*EQUATION
2
2687, 3, 1, 5660, 3, -1
*EQUATION
2
2688, 3, 1, 5661, 3, -1
*EQUATION
2
2689, 3, 1, 5662, 3, -1
*EQUATION
2
2690, 3, 1, 5663, 3, -1
*EQUATION
2
2691, 3, 1, 5664, 3, -1
*EQUATION
2
2692, 3, 1, 5665, 3, -1
*EQUATION
2
2693, 3, 1, 5666, 3, -1
*EQUATION
2
2694, 3, 1, 5667, 3, -1
*EQUATION
2
2695, 3, 1, 5668, 3, -1
*EQUATION
2
2696, 3, 1, 5669, 3, -1
*EQUATION
2
2697, 3, 1, 5670, 3, -1
*EQUATION
2
2698, 3, 1, 5671, 3, -1
*EQUATION
2
2699, 3, 1, 5672, 3, -1
*EQUATION
2
2700, 3, 1, 5673, 3, -1
*EQUATION
2
2701, 3, 1, 5674, 3, -1
*EQUATION
2
2702, 3, 1, 5675, 3, -1
*EQUATION
2
2703, 3, 1, 5676, 3, -1
*EQUATION
2
2704, 3, 1, 5677, 3, -1
*EQUATION
2
2705, 3, 1, 5678, 3, -1
*EQUATION
2
2706, 3, 1, 5679, 3, -1
*EQUATION
2
2707, 3, 1, 5680, 3, -1
*EQUATION
2
2708, 3, 1, 5681, 3, -1
*EQUATION
2
2709, 3, 1, 5682, 3, -1
*EQUATION
2
2710, 3, 1, 5683, 3, -1
*EQUATION
2
2711, 3, 1, 5684, 3, -1
*EQUATION
2
2712, 3, 1, 5685, 3, -1
*EQUATION
2
2713, 3, 1, 5686, 3, -1
*EQUATION
2
2714, 3, 1, 5687, 3, -1
**
** Steps +++++++++++++++++++++++++++++++++++++++++++++++++++
**
**
** Step-1 ++++++++++++++++++++++++++++++++++++++++++++++++++
**
*Step, Inc=100
*Static
1, 1, 1E-05, 1
**
** Boundary conditions +++++++++++++++++++++++++++++++++++++
**
*Boundary, op=New
*BOUNDARY
5483, 3
5484, 3
5485, 3
5486, 3
5487, 3
5488, 3
5489, 3
5490, 3
5491, 3
5492, 3
5493, 3
5494, 3
5495, 3
5496, 3
5497, 3
5498, 3
5499, 3
5500, 3
5501, 3
5502, 3
** ... 185 like lines cut
** Name: Fixed-1
*Boundary
5485, 1, 3, 0
5486, 1, 3, 0
** Name: Fixed-2
*Boundary
5483, 1, 3, 0
5484, 1, 3, 0
**
** Loads +++++++++++++++++++++++++++++++++++++++++++++++++++
**
*Cload, op=New
*Dload, op=New
** Name: Force
*Cload
5481, 1, 49029.033784546
5481, 3, 9805.8067569092
**
** Defined fields ++++++++++++++++++++++++++++++++++++++++++
**
**
** History outputs +++++++++++++++++++++++++++++++++++++++++
**
**
** Field outputs +++++++++++++++++++++++++++++++++++++++++++
**
*El file
S
*Node file
U
**
** End step ++++++++++++++++++++++++++++++++++++++++++++++++
**
*End step
